 540
  F 0etoh                                                                       
O    4.93137   0.72112  32.85671
O    4.94038   3.68099  32.83440
Ti   1.69502   0.71973  31.50066
Ti   4.94669   2.18748  31.71289
O    2.88288   2.19958  31.71498
O    0.51330   2.19415  31.75907
Ti   1.69112   3.67834  31.51614
Ti   4.94878   5.17287  31.71140
O    2.88283   5.15471  31.70748
O    0.51007   5.16023  31.75071
O    4.96122   0.72530  30.50462
O    4.96738   3.68229  30.47080
O    1.65051   0.73381  29.56264
O    1.64147   3.68718  29.56390
Ti   4.91842   0.73560  28.29597
O    6.13190   2.21243  28.29291
O    3.70792   2.21576  28.39174
Ti   1.67629   2.22605  28.29318
Ti   4.92283   3.69441  28.39219
O    6.13240   5.17684  28.29519
O    3.70832   5.17349  28.39377
Ti   1.67579   5.16045  28.29410
O    1.72232   0.73663  27.07468
O    1.72040   3.69479  27.10523
O    4.83579   0.74381  26.21528
O    4.83703   3.70409  26.19714
Ti   1.64118   0.74539  25.03832
O    2.84976   2.22427  24.91896
O    0.42925   2.22340  25.07921
Ti   4.89029   2.24438  24.99924
Ti   1.63738   3.70454  24.95364
O    2.84949   5.18528  24.91907
O    0.42919   5.18600  25.07934
Ti   4.89044   5.16485  24.99921
O    4.96135   0.74668  23.79038
O    4.96000   3.70538  23.80349
O    1.51433   0.74831  22.88269
O    1.51390   3.70721  22.91140
Ti   4.84571   0.74882  21.69634
O    6.04959   2.22888  21.54212
O    3.63614   2.22866  21.77090
Ti   1.59809   2.21494  21.69863
Ti   4.84024   3.70784  21.60829
O    6.04957   5.18699  21.54205
O    3.63616   5.18718  21.77085
Ti   1.59807   5.20025  21.69858
O    1.69054   0.74907  20.43178
O    1.68866   3.70804  20.43197
O    4.66107   0.74939  19.50087
O    4.65893   3.70829  19.53206
Ti   1.52154   0.74936  18.47988
O    2.67663   2.22898  18.13668
O    0.31710   2.22997  18.41280
Ti   4.75343   2.21659  18.29977
Ti   1.52431   3.70836  18.50094
O    2.67666   5.18784  18.13679
O    0.31711   5.18684  18.41285
Ti   4.75344   5.20019  18.29980
O    4.85007   0.74941  17.15627
O    4.84660   3.70842  17.17767
O    4.93100   6.63913  32.85680
O    4.94017   9.59885  32.83462
Ti   1.69498   6.63764  31.50037
Ti   4.94702   8.10542  31.71298
O    2.88284   8.11738  31.71433
O    0.51331   8.11189  31.75907
Ti   1.69112   9.59606  31.51618
Ti   4.94833  11.09074  31.71165
O    2.88293  11.07247  31.70765
O    0.51016  11.07806  31.75140
O    4.96213   6.64325  30.50472
O    4.96758   9.60027  30.47105
O    1.65049   6.65180  29.56246
O    1.64118   9.60531  29.56388
Ti   4.91842   6.65376  28.29602
O    6.13186   8.13059  28.29300
O    3.70792   8.13386  28.39191
Ti   1.67619   8.14415  28.29309
Ti   4.92278   9.61248  28.39228
O    6.13226  11.09482  28.29540
O    3.70828  11.09144  28.39386
Ti   1.67561  11.07848  28.29417
O    1.72228   6.65469  27.07443
O    1.72036   9.61291  27.10523
O    4.83576   6.66192  26.21530
O    4.83700   9.62213  26.19713
Ti   1.64118   6.66338  25.03844
O    2.84976   8.14228  24.91900
O    0.42923   8.14141  25.07922
Ti   4.89022   8.16243  24.99925
Ti   1.63734   9.62255  24.95358
O    2.84948  11.10329  24.91904
O    0.42916  11.10402  25.07928
Ti   4.89033  11.08284  24.99919
O    4.96133   6.66473  23.79040
O    4.95992   9.62338  23.80349
O    1.51433   6.66631  22.88269
O    1.51390   9.62520  22.91141
Ti   4.84571   6.66682  21.69634
O    6.04959   8.14687  21.54211
O    3.63614   8.14665  21.77088
Ti   1.59809   8.13290  21.69863
Ti   4.84024   9.62583  21.60825
O    6.04958  11.10498  21.54201
O    3.63616  11.10518  21.77081
Ti   1.59807  11.11825  21.69856
O    1.69054   6.66706  20.43179
O    1.68866   9.62602  20.43196
O    4.66108   6.66737  19.50087
O    4.65893   9.62629  19.53207
Ti   1.52153   6.66736  18.47987
O    2.67663   8.14697  18.13668
O    0.31710   8.14797  18.41280
Ti   4.75343   8.13458  18.29977
Ti   1.52432   9.62635  18.50094
O    2.67666  11.10583  18.13678
O    0.31711  11.10484  18.41285
Ti   4.75345  11.11818  18.29979
O    4.85007   6.66739  17.15627
O    4.84661   9.62641  17.17768
O    4.93084  12.55710  32.85695
O    4.94041  15.51696  32.83435
Ti   1.69496  12.55557  31.50054
Ti   4.94704  14.02327  31.71291
O    2.88285  14.03536  31.71437
O    0.51325  14.02993  31.75915
Ti   1.69116  15.51416  31.51614
Ti   4.94821  17.00890  31.71122
O    2.88299  16.99057  31.70771
O    0.51017  16.99621  31.75128
O    4.96190  12.56102  30.50488
O    4.96728  15.51810  30.47068
O    1.65031  12.56956  29.56257
O    1.64124  15.52331  29.56402
Ti   4.91833  12.57162  28.29610
O    6.13183  14.04835  28.29301
O    3.70792  14.05172  28.39193
Ti   1.67608  14.06210  28.29319
Ti   4.92284  15.53029  28.39236
O    6.13240  17.01272  28.29532
O    3.70833  17.00933  28.39379
Ti   1.67581  16.99653  28.29425
O    1.72220  12.57268  27.07457
O    1.72036  15.53090  27.10532
O    4.83573  12.57984  26.21523
O    4.83703  15.54004  26.19711
Ti   1.64114  12.58140  25.03840
O    2.84974  14.06028  24.91902
O    0.42922  14.05943  25.07922
Ti   4.89023  14.08037  24.99923
Ti   1.63736  15.54056  24.95366
O    2.84950  17.02128  24.91903
O    0.42919  17.02202  25.07930
Ti   4.89041  17.00077  24.99919
O    4.96129  12.58270  23.79038
O    4.95994  15.54134  23.80348
O    1.51433  12.58431  22.88268
O    1.51390  15.54320  22.91138
Ti   4.84571  12.58481  21.69630
O    6.04959  14.06488  21.54208
O    3.63614  14.06465  21.77086
Ti   1.59808  14.05092  21.69862
Ti   4.84024  15.54383  21.60824
O    6.04956  17.02299  21.54204
O    3.63616  17.02318  21.77082
Ti   1.59807  17.03623  21.69856
O    1.69054  12.58506  20.43178
O    1.68866  15.54403  20.43196
O    4.66108  12.58537  19.50086
O    4.65894  15.54429  19.53208
Ti   1.52154  12.58536  18.47987
O    2.67663  14.06497  18.13668
O    0.31710  14.06597  18.41280
Ti   4.75344  14.05259  18.29976
Ti   1.52431  15.54435  18.50093
O    2.67667  17.02384  18.13679
O    0.31711  17.02284  18.41285
Ti   4.75344  17.03620  18.29980
O    4.85008  12.58540  17.15627
O    4.84661  15.54443  17.17768
O   11.42760   0.72107  32.85675
O   11.43723   3.68089  32.83420
Ti   8.19184   0.71958  31.50019
Ti  11.44415   2.18723  31.71266
O    9.37984   2.19916  31.71408
O    7.01039   2.19383  31.75914
Ti   8.18815   3.67791  31.51623
Ti  11.44487   5.17286  31.71109
O    9.38017   5.15437  31.70757
O    7.00731   5.15998  31.75183
O   11.45893   0.72500  30.50465
O   11.46423   3.68216  30.47049
O    8.14723   0.73379  29.56238
O    8.13799   3.68734  29.56390
Ti  11.41520   0.73561  28.29595
O   12.62873   2.21245  28.29288
O   10.20473   2.21580  28.39179
Ti   8.17310   2.22620  28.29302
Ti  11.41967   3.69447  28.39228
O   12.62918   5.17683  28.29525
O   10.20518   5.17346  28.39375
Ti   8.17245   5.16052  28.29426
O    8.21917   0.73665  27.07425
O    8.21725   3.69500  27.10526
O   11.33265   0.74382  26.21528
O   11.33392   3.70409  26.19711
Ti   8.13807   0.74536  25.03857
O    9.34667   2.22428  24.91902
O    6.92613   2.22342  25.07924
Ti  11.38712   2.24439  24.99922
Ti   8.13425   3.70458  24.95353
O    9.34642   5.18534  24.91912
O    6.92607   5.18608  25.07939
Ti  11.38723   5.16483  24.99918
O   11.45820   0.74668  23.79037
O   11.45680   3.70537  23.80348
O    8.01124   0.74830  22.88268
O    8.01080   3.70722  22.91148
Ti  11.34262   0.74881  21.69634
O   12.54649   2.22888  21.54211
O   10.13304   2.22866  21.77088
Ti   8.09498   2.21488  21.69866
Ti  11.33714   3.70783  21.60827
O   12.54647   5.18699  21.54205
O   10.13306   5.18718  21.77084
Ti   8.09498   5.20031  21.69860
O    8.18744   0.74907  20.43180
O    8.18556   3.70804  20.43198
O   11.15797   0.74938  19.50087
O   11.15583   3.70829  19.53207
Ti   8.01844   0.74937  18.47984
O    9.17353   2.22898  18.13668
O    6.81401   2.22998  18.41280
Ti  11.25033   2.21659  18.29977
Ti   8.02122   3.70836  18.50098
O    9.17356   5.18783  18.13678
O    6.81401   5.18683  18.41284
Ti  11.25034   5.20019  18.29980
O   11.34699   0.74940  17.15627
O   11.34352   3.70842  17.17769
O   11.42826   6.63905  32.85669
O   11.43739   9.59890  32.83446
Ti   8.19202   6.63750  31.50075
Ti  11.44412   8.10539  31.71279
O    9.38005   8.11730  31.71469
O    7.01048   8.11190  31.75983
Ti   8.18825   9.59609  31.51680
Ti  11.44530  11.09088  31.71148
O    9.38017  11.07248  31.70811
O    7.00745  11.07795  31.75230
O   11.45837   6.64326  30.50458
O   11.46437   9.60030  30.47081
O    8.14708   6.65167  29.56280
O    8.13810   9.60528  29.56428
Ti  11.41523   6.65364  28.29594
O   12.62874   8.13047  28.29287
O   10.20476   8.13383  28.39200
Ti   8.17312   8.14425  28.29347
Ti  11.41975   9.61245  28.39237
O   12.62924  11.09480  28.29523
O   10.20529  11.09139  28.39399
Ti   8.17257  11.07838  28.29458
O    8.21917   6.65484  27.07472
O    8.21729   9.61293  27.10567
O   11.33262   6.66190  26.21531
O   11.33390   9.62212  26.19713
Ti   8.13808   6.66349  25.03864
O    9.34664   8.14234  24.91907
O    6.92616   8.14148  25.07929
Ti  11.38718   8.16245  24.99925
Ti   8.13425   9.62258  24.95358
O    9.34637  11.10327  24.91898
O    6.92610  11.10400  25.07928
Ti  11.38733  11.08283  24.99920
O   11.45822   6.66472  23.79039
O   11.45688   9.62339  23.80349
O    8.01124   6.66632  22.88268
O    8.01079   9.62519  22.91139
Ti  11.34262   6.66682  21.69636
O   12.54649   8.14688  21.54211
O   10.13305   8.14666  21.77090
Ti   8.09498   8.13288  21.69864
Ti  11.33714   9.62583  21.60825
O   12.54646  11.10498  21.54202
O   10.13306  11.10518  21.77082
Ti   8.09497  11.11822  21.69853
O    8.18744   6.66705  20.43181
O    8.18557   9.62601  20.43194
O   11.15797   6.66737  19.50087
O   11.15583   9.62629  19.53207
Ti   8.01843   6.66735  18.47983
O    9.17353   8.14697  18.13667
O    6.81400   8.14797  18.41279
Ti  11.25033   8.13458  18.29977
Ti   8.02122   9.62634  18.50093
O    9.17356  11.10583  18.13677
O    6.81401  11.10483  18.41283
Ti  11.25034  11.11819  18.29980
O   11.34698   6.66740  17.15627
O   11.34352   9.62641  17.17768
O   11.42846  12.55718  32.85691
O   11.43716  15.51692  32.83452
Ti   8.19198  12.55548  31.50103
Ti  11.44378  14.02342  31.71296
O    9.37965  14.03537  31.71491
O    7.01011  14.02979  31.75938
Ti   8.18791  15.51400  31.51604
Ti  11.44518  17.00874  31.71136
O    9.37974  16.99044  31.70722
O    7.00684  16.99614  31.75056
O   11.45835  12.56121  30.50481
O   11.46419  15.51820  30.47089
O    8.14723  12.56937  29.56291
O    8.13817  15.52290  29.56396
Ti  11.41533  12.57159  28.29608
O   12.62877  14.04844  28.29299
O   10.20479  14.05167  28.39192
Ti   8.17315  14.06173  28.29330
Ti  11.41965  15.53036  28.39224
O   12.62914  17.01278  28.29529
O   10.20507  17.00939  28.39370
Ti   8.17258  16.99628  28.29401
O    8.21920  12.57239  27.07500
O    8.21728  15.53050  27.10525
O   11.33263  12.57984  26.21525
O   11.33390  15.54003  26.19713
Ti   8.13807  12.58132  25.03831
O    9.34665  14.06020  24.91896
O    6.92615  14.05934  25.07920
Ti  11.38716  14.08035  24.99923
Ti   8.13426  15.54045  24.95367
O    9.34640  17.02122  24.91912
O    6.92608  17.02195  25.07939
Ti  11.38725  17.00078  24.99918
O   11.45827  12.58269  23.79039
O   11.45685  15.54133  23.80348
O    8.01122  12.58430  22.88265
O    8.01079  15.54321  22.91137
Ti  11.34261  12.58481  21.69630
O   12.54649  14.06487  21.54209
O   10.13304  14.06465  21.77087
Ti   8.09498  14.05094  21.69861
Ti  11.33714  15.54383  21.60826
O   12.54647  17.02298  21.54203
O   10.13307  17.02317  21.77083
Ti   8.09497  17.03626  21.69859
O    8.18744  12.58507  20.43174
O    8.18557  15.54405  20.43195
O   11.15797  12.58537  19.50087
O   11.15583  15.54429  19.53207
Ti   8.01844  12.58536  18.47985
O    9.17353  14.06498  18.13666
O    6.81401  14.06598  18.41278
Ti  11.25033  14.05259  18.29977
Ti   8.02122  15.54436  18.50093
O    9.17356  17.02384  18.13677
O    6.81401  17.02284  18.41283
Ti  11.25034  17.03619  18.29980
O   11.34698  12.58540  17.15627
O   11.34352  15.54442  17.17768
O   17.92509   0.72116  32.85694
O   17.93417   3.68103  32.83446
Ti  14.68875   0.71943  31.50087
Ti  17.94070   2.18742  31.71298
O   15.87640   2.19941  31.71494
O   13.50679   2.19382  31.75931
Ti  14.68479   3.67810  31.51610
Ti  17.94196   5.17282  31.71114
O   15.87669   5.15445  31.70735
O   13.50386   5.16015  31.75081
O   17.95524   0.72526  30.50485
O   17.96087   3.68208  30.47079
O   14.64406   0.73354  29.56273
O   14.63499   3.68704  29.56395
Ti  17.91218   0.73565  28.29605
O   19.12565   2.21243  28.29301
O   16.70173   2.21571  28.39181
Ti  14.66988   2.22591  28.29326
Ti  17.91660   3.69433  28.39224
O   19.12611   5.17674  28.29540
O   16.70206   5.17335  28.39369
Ti  14.66953   5.16039  28.29408
O   14.71602   0.73657  27.07483
O   14.71415   3.69467  27.10526
O   17.82957   0.74384  26.21526
O   17.83085   3.70407  26.19713
Ti  14.63495   0.74538  25.03826
O   15.84354   2.22425  24.91899
O   13.42303   2.22339  25.07918
Ti  17.88406   2.24437  24.99924
Ti  14.63115   3.70452  24.95370
O   15.84329   5.18526  24.91909
O   13.42299   5.18600  25.07934
Ti  17.88418   5.16480  24.99919
O   17.95513   0.74669  23.79038
O   17.95375   3.70535  23.80349
O   14.50812   0.74831  22.88269
O   14.50770   3.70722  22.91137
Ti  17.83952   0.74882  21.69634
O   19.04339   2.22888  21.54212
O   16.62994   2.22865  21.77089
Ti  14.59188   2.21496  21.69863
Ti  17.83404   3.70783  21.60828
O   19.04337   5.18699  21.54206
O   16.62996   5.18718  21.77085
Ti  14.59187   5.20023  21.69858
O   14.68435   0.74906  20.43177
O   14.68247   3.70804  20.43197
O   17.65488   0.74938  19.50089
O   17.65273   3.70829  19.53208
Ti  14.51534   0.74936  18.47988
O   15.67043   2.22897  18.13669
O   13.31091   2.22997  18.41281
Ti  17.74724   2.21659  18.29977
Ti  14.51812   3.70835  18.50093
O   15.67046   5.18784  18.13679
O   13.31091   5.18684  18.41285
Ti  17.74724   5.20019  18.29981
O   17.84387   0.74940  17.15628
O   17.84041   3.70842  17.17769
O   17.92489   6.63905  32.85667
O   17.93410   9.59887  32.83436
Ti  14.68878   6.63759  31.50032
Ti  17.94067   8.10532  31.71267
O   15.87668   8.11730  31.71444
O   13.50712   8.11192  31.75913
Ti  14.68501   9.59611  31.51612
Ti  17.94213  11.09082  31.71121
O   15.87690  11.07248  31.70743
O   13.50415  11.07811  31.75134
O   17.95524   6.64316  30.50456
O   17.96111   9.60018  30.47068
O   14.64414   6.65180  29.56244
O   14.63503   9.60522  29.56379
Ti  17.91219   6.65358  28.29600
O   19.12570   8.13041  28.29296
O   16.70173   8.13376  28.39174
Ti  14.66996   8.14409  28.29303
Ti  17.91661   9.61236  28.39224
O   19.12613  11.09479  28.29526
O   16.70206  11.09141  28.39373
Ti  14.66959  11.07841  28.29406
O   14.71608   6.65463  27.07440
O   14.71420   9.61284  27.10514
O   17.82960   6.66181  26.21531
O   17.83084   9.62208  26.19715
Ti  14.63496   6.66337  25.03842
O   15.84356   8.14226  24.91897
O   13.42303   8.14141  25.07921
Ti  17.88405   8.16238  24.99925
Ti  14.63116   9.62254  24.95353
O   15.84332  11.10329  24.91905
O   13.42299  11.10403  25.07935
Ti  17.88417  11.08282  24.99920
O   17.95512   6.66470  23.79040
O   17.95374   9.62336  23.80351
O   14.50813   6.66630  22.88268
O   14.50769   9.62521  22.91143
Ti  17.83951   6.66682  21.69634
O   19.04339   8.14688  21.54212
O   16.62994   8.14666  21.77089
Ti  14.59188   8.13290  21.69862
Ti  17.83404   9.62583  21.60828
O   19.04337  11.10498  21.54205
O   16.62996  11.10517  21.77084
Ti  14.59188  11.11827  21.69857
O   14.68434   6.66706  20.43178
O   14.68247   9.62603  20.43196
O   17.65487   6.66738  19.50088
O   17.65273   9.62629  19.53207
Ti  14.51534   6.66736  18.47987
O   15.67043   8.14697  18.13668
O   13.31091   8.14797  18.41280
Ti  17.74723   8.13459  18.29978
Ti  14.51812   9.62635  18.50095
O   15.67046  11.10583  18.13679
O   13.31091  11.10484  18.41285
Ti  17.74724  11.11818  18.29980
O   17.84388   6.66740  17.15628
O   17.84041   9.62641  17.17769
O   17.92482  12.55711  32.85667
O   17.93413  15.51687  32.83435
Ti  14.68889  12.55553  31.50037
Ti  17.94096  14.02333  31.71265
O   15.87688  14.03530  31.71399
O   13.50728  14.02990  31.75904
Ti  14.68506  15.51412  31.51623
Ti  17.94212  17.00892  31.71143
O   15.87692  16.99045  31.70776
O   13.50427  16.99591  31.75195
O   17.95567  12.56110  30.50458
O   17.96127  15.51832  30.47066
O   14.64406  12.56943  29.56249
O   14.63492  15.52341  29.56403
Ti  17.91216  12.57167  28.29601
O   19.12570  14.04851  28.29297
O   16.70168  14.05184  28.39196
Ti  14.66999  14.06218  28.29315
Ti  17.91662  15.53052  28.39239
O   19.12610  17.01290  28.29539
O   16.70215  17.00945  28.39386
Ti  14.66940  16.99653  28.29433
O   14.71615  12.57273  27.07441
O   14.71417  15.53099  27.10537
O   17.82956  12.57986  26.21531
O   17.83084  15.54009  26.19713
Ti  14.63499  12.58142  25.03851
O   15.84357  14.06030  24.91903
O   13.42306  14.05942  25.07927
Ti  17.88407  14.08041  24.99926
Ti  14.63116  15.54057  24.95361
O   15.84329  17.02129  24.91901
O   13.42298  17.02201  25.07927
Ti  17.88419  17.00081  24.99920
O   17.95512  12.58270  23.79040
O   17.95374  15.54136  23.80350
O   14.50813  12.58431  22.88268
O   14.50769  15.54319  22.91140
Ti  17.83952  12.58481  21.69634
O   19.04339  14.06487  21.54211
O   16.62994  14.06465  21.77089
Ti  14.59188  14.05090  21.69863
Ti  17.83404  15.54382  21.60827
O   19.04337  17.02298  21.54205
O   16.62996  17.02317  21.77084
Ti  14.59187  17.03622  21.69855
O   14.68435  12.58506  20.43179
O   14.68247  15.54402  20.43196
O   17.65487  12.58537  19.50088
O   17.65273  15.54429  19.53208
Ti  14.51534  12.58536  18.47986
O   15.67043  14.06497  18.13668
O   13.31091  14.06597  18.41280
Ti  17.74724  14.05259  18.29978
Ti  14.51812  15.54435  18.50093
O   15.67046  17.02384  18.13679
O   13.31091  17.02284  18.41286
Ti  17.74724  17.03619  18.29980
O   17.84388  12.58540  17.15628
O   17.84041  15.54442  17.17769
